LTspice 24.1.8 for Windows
Circuit: C:\Users\HP\Desktop\functiongenerator.net
Start Time: Tue Jun 24 21:11:12 2025
solver = Normal
Maximum thread count: 12
tnom = 27
temp = 27
method = trap
Per .tran options, skipping operating point for transient analysis.
Total elapsed time: 0.627 seconds.

Files loaded:
C:\Users\HP\Desktop\functiongenerator.net
C:\Users\HP\AppData\Local\LTspice\lib\sub\LTC.lib

